[General]
network = extendedStar
sim-time-limit = 200s
**.host1A.cli.destAddress = "host2B"
**.host1B.cli.destAddress = "host4A"

**.host2A.cli.destAddress = "host4B"
**.host2B.cli.destAddress = "host1A"

**.host3A.cli.destAddress = "host2A"
**.host3B.cli.destAddress = "host3A"

**.host4A.cli.destAddress = "host1B"
**.host4B.cli.destAddress = "host3B"

[Config belowAverageLoad]
**.cli.sendInterval = exponential(2s)
**.cli.reqLength = intuniform(50,1400)*1B
**.cli.respLength = intWithUnit(truncnormal(3000B,3000B))

[Config averageLoad]
**.cli.sendInterval = exponential(1s)
**.cli.reqLength = intuniform(50,1400)*1B
**.cli.respLength = intWithUnit(truncnormal(3000B,3000B))

[Config aboveAverageLoad]
**.cli.sendInterval = exponential(0.3s)
**.cli.reqLength = intuniform(50,1400)*1B
**.cli.respLength = intWithUnit(truncnormal(3000B,3000B))