[General]
network = P2PNetwork
seed-set = 1
sim-time-limit = 100000s

**.source1.interArrivalTime = truncnormal(2.5s, 1.25s)
**.source2.interArrivalTime = truncnormal(2.5s, 1.25s)
**.source3.interArrivalTime = truncnormal(2.5s, 1.25s)
**.source4.interArrivalTime = truncnormal(2.5s, 1.25s)

**.mm1_1.serviceTime = truncnormal(${m=1..1.1 step 0.01}s, 0.5*${m}s)
**.mm1_2.serviceTime = truncnormal(${m}s, 0.5*${m}s)
**.mm1_3.serviceTime = truncnormal(${m}s, 0.5*${m}s)
**.mm1_4.serviceTime = truncnormal(${m}s, 0.5*${m}s)