[General]
network = ethernetMesh
sim-time-limit = 100s
**.cli.sendInterval = 0.1s

[Config ethernetMesh]
ethernetMesh.ethernetHost1.cli.destAddress = "ethernetHost2"
ethernetMesh.ethernetHost2.cli.destAddress = "ethernetHost4"
ethernetMesh.ethernetHost3.cli.destAddress = "ethernetHost1"
ethernetMesh.ethernetHost4.cli.destAddress = "ethernetHost3"

**.cli.reqLength = intuniform(50,1400)*1B
**.cli.respLength = intWithUnit(truncnormal(3000B,3000B))
