[General]
sim-time-limit = 1200s
**.vector-recording = false
description = "(abstract)"

[Config ethernetMixed]
network = ethernetMixed
ethernetMixed.ethernetHost1.cli.destAddress = "ethernetHost7"
ethernetMixed.ethernetHost2.cli.destAddress = "ethernetHost3"
ethernetMixed.ethernetHost3.cli.destAddress = "ethernetHost9"
ethernetMixed.ethernetHost4.cli.destAddress = "ethernetHost1"
ethernetMixed.ethernetHost5.cli.destAddress = "ethernetHost8"
ethernetMixed.ethernetHost6.cli.destAddress = "ethernetHost10"
ethernetMixed.ethernetHost7.cli.destAddress = "ethernetHost5"
ethernetMixed.ethernetHost8.cli.destAddress = "ethernetHost2"
ethernetMixed.ethernetHost9.cli.destAddress = "ethernetHost4"
ethernetMixed.ethernetHost10.cli.destAddress = "ethernetHost6"

**.cli.sendInterval = exponential(0.1s)
**.cli.reqLength = intuniform(50,1400)*1B
**.cli.respLength = intWithUnit(truncnormal(3000B,3000B))

