[General]
sim-time-limit = 200s
**.vector-recording = false

**.host1A.cli.destAddress = "host2B"
**.host1B.cli.destAddress = "host4A"
**.host1C.cli.destAddress = "host1B"

**.host2A.cli.destAddress = "host3C"
**.host2B.cli.destAddress = "host1A"
**.host2C.cli.destAddress = "host4B"

**.host3A.cli.destAddress = "host2A"
**.host3B.cli.destAddress = "host3C"
**.host3C.cli.destAddress = "host4C"

**.host4A.cli.destAddress = "host1C"
**.host4B.cli.destAddress = "host3B"
**.host4C.cli.destAddress = "host2C"

[Config belowAverageLoad]
network = ethernetTree
**.cli.sendInterval = exponential(2s)
**.cli.reqLength = intuniform(50,1400)*1B
**.cli.respLength = intWithUnit(truncnormal(3000B,3000B))

[Config averageLoad]
network = ethernetTree
**.cli.sendInterval = exponential(1s)
**.cli.reqLength = intuniform(50,1400)*1B
**.cli.respLength = intWithUnit(truncnormal(3000B,3000B))

[Config aboveAverageLoad]
network = ethernetTree
**.cli.sendInterval = exponential(0.3s)
**.cli.reqLength = intuniform(50,1400)*1B
**.cli.respLength = intWithUnit(truncnormal(3000B,3000B))


