[General]
network = ethernetTree
sim-time-limit = 50s
ethernetTree.h = 2
**.datarate = 10Mbps
**.cli.reqLength = intuniform(50,1400)*1B
**.cli.respLength = intWithUnit(truncnormal(3000B,3000B))
**.host*.cli.destAddress = "server"
**.cli.sendInterval = exponential(0.0525s)

[Config bntNumHosts]
ethernetTree.h = ${numHosts=2,3,4}

[Config bntSwitchQueueCapacity]
**.cli.sendInterval = exponential(0.025s)
**.switch*.ethg[*].queue.dataQueue.packetCapacity = ${switchQueueCapacity=1,5,10,50,100,200,600,1000,2000,5000,10000}

[Config bntDatarate]
**.datarate = ${datarate=10Mbps,100Mbps,1Gbps}

[Config bntRespLength]
**.cli.respLength = intWithUnit(truncnormal(${respLength=3000,4000,5000,6000,7000,8000}B, ${respLength}B))

[Config bntSendInterval]
**.cli.sendInterval = exponential(${sendInterval=0.024..0.028 step 0.00025}s)
